loadshapes/Loads_FeederB.dss
! Arquivo Load - Feeder B
New Load.Load_2002 phases=3 conn=wye bus1=T_bus2002_L.1.2.3.0 kV=0.208 kW=242.820 kvar=112.140 daily=Load_Bus 2002_P qmult=Load_Bus 2002_Q model=1
New Load.Load_2003 phases=3 conn=wye bus1=T_bus2003_L.1.2.3.0 kV=0.208 kW=35.744 kvar=16.622 daily=Load_Bus 2003_P qmult=Load_Bus 2003_Q model=1
New Load.Load_2005 phases=3 conn=wye bus1=T_bus2005_L.1.2.3.0 kV=0.208 kW=17.163 kvar=7.512 daily=Load_Bus 2005_P qmult=Load_Bus 2005_Q model=1
New Load.Load_2008 phases=2 conn=wye bus1=T_bus2008_L.1.2 kV=0.208 kW=15.304 kvar=6.372 daily=Load_Bus 2008_P qmult=Load_Bus 2008_Q model=1
New Load.Load_2009 phases=2 conn=wye bus1=T_bus2009_L.1.2 kV=0.208 kW=8.435 kvar=3.459 daily=Load_Bus 2009_P qmult=Load_Bus 2009_Q model=1
New Load.Load_2010 phases=3 conn=wye bus1=T_bus2010_L.1.2.3.0 kV=0.208 kW=14.731 kvar=6.275 daily=Load_Bus 2010_P qmult=Load_Bus 2010_Q model=1
New Load.Load_2011 phases=3 conn=wye bus1=T_bus2011_L.1.2.3.0 kV=0.208 kW=24.247 kvar=11.439 daily=Load_Bus 2011_P qmult=Load_Bus 2011_Q model=1
New Load.Load_2014 phases=2 conn=wye bus1=T_bus2014_L.1.2 kV=0.208 kW=17.341 kvar=7.901 daily=Load_Bus 2014_P qmult=Load_Bus 2014_Q model=1
New Load.Load_2015 phases=2 conn=wye bus1=T_bus2015_L.1.2 kV=0.208 kW=9.191 kvar=3.795 daily=Load_Bus 2015_P qmult=Load_Bus 2015_Q model=1
New Load.Load_2016 phases=2 conn=wye bus1=T_bus2016_L.1.2 kV=0.208 kW=12.655 kvar=5.391 daily=Load_Bus 2016_P qmult=Load_Bus 2016_Q model=1
New Load.Load_2017 phases=2 conn=wye bus1=T_bus2017_L.1.2 kV=0.208 kW=15.393 kvar=6.649 daily=Load_Bus 2017_P qmult=Load_Bus 2017_Q model=1
New Load.Load_2018 phases=2 conn=wye bus1=T_bus2018_L.1.2 kV=0.208 kW=14.117 kvar=6.837 daily=Load_Bus 2018_P qmult=Load_Bus 2018_Q model=1
New Load.Load_2020 phases=2 conn=wye bus1=T_bus2020_L.1.2 kV=0.208 kW=12.706 kvar=5.900 daily=Load_Bus 2020_P qmult=Load_Bus 2020_Q model=1
New Load.Load_2022 phases=2 conn=wye bus1=T_bus2022_L.1.2 kV=0.208 kW=13.909 kvar=5.589 daily=Load_Bus 2022_P qmult=Load_Bus 2022_Q model=1
New Load.Load_2023 phases=2 conn=wye bus1=T_bus2023_L.1.2 kV=0.208 kW=3.743 kvar=1.595 daily=Load_Bus 2023_P qmult=Load_Bus 2023_Q model=1
New Load.Load_2024 phases=2 conn=wye bus1=T_bus2024_L.1.2 kV=0.208 kW=15.011 kvar=6.049 daily=Load_Bus 2024_P qmult=Load_Bus 2024_Q model=1
New Load.Load_2025 phases=2 conn=wye bus1=T_bus2025_L.1.2 kV=0.208 kW=13.932 kvar=5.567 daily=Load_Bus 2025_P qmult=Load_Bus 2025_Q model=1
New Load.Load_2028 phases=2 conn=wye bus1=T_bus2028_L.1.2 kV=0.208 kW=8.845 kvar=3.787 daily=Load_Bus 2028_P qmult=Load_Bus 2028_Q model=1
New Load.Load_2029 phases=3 conn=wye bus1=T_bus2029_L.1.2.3.0 kV=0.208 kW=41.721 kvar=17.501 daily=Load_Bus 2029_P qmult=Load_Bus 2029_Q model=1
New Load.Load_2030 phases=3 conn=wye bus1=T_bus2030_L.1.2.3.0 kV=0.208 kW=55.488 kvar=19.002 daily=Load_Bus 2030_P qmult=Load_Bus 2030_Q model=1
New Load.Load_2031 phases=2 conn=wye bus1=T_bus2031_L.1.2 kV=0.208 kW=16.046 kvar=6.877 daily=Load_Bus 2031_P qmult=Load_Bus 2031_Q model=1
New Load.Load_2032 phases=3 conn=wye bus1=T_bus2032_L.1.2.3.0 kV=0.208 kW=7.788 kvar=3.244 daily=Load_Bus 2032_P qmult=Load_Bus 2032_Q model=1
New Load.Load_2034 phases=3 conn=wye bus1=T_bus2034_L.1.2.3.0 kV=0.208 kW=25.200 kvar=10.651 daily=Load_Bus 2034_P qmult=Load_Bus 2034_Q model=1
New Load.Load_2035 phases=3 conn=wye bus1=T_bus2035_L.1.2.3.0 kV=0.208 kW=33.627 kvar=14.325 daily=Load_Bus 2035_P qmult=Load_Bus 2035_Q model=1
New Load.Load_2037 phases=3 conn=wye bus1=T_bus2037_L.1.2.3.0 kV=0.208 kW=17.555 kvar=7.595 daily=Load_Bus 2037_P qmult=Load_Bus 2037_Q model=1
New Load.Load_2040 phases=3 conn=wye bus1=T_bus2040_L.1.2.3.0 kV=0.208 kW=204.279 kvar=98.937 daily=Load_Bus 2040_P qmult=Load_Bus 2040_Q model=1
New Load.Load_2041 phases=3 conn=wye bus1=T_bus2041_L.1.2.3.0 kV=0.208 kW=19.979 kvar=7.848 daily=Load_Bus 2041_P qmult=Load_Bus 2041_Q model=1
New Load.Load_2042 phases=3 conn=wye bus1=T_bus2042_L.1.2.3.0 kV=0.208 kW=39.779 kvar=17.281 daily=Load_Bus 2042_P qmult=Load_Bus 2042_Q model=1
New Load.Load_2043 phases=3 conn=wye bus1=T_bus2043_L.1.2.3.0 kV=0.208 kW=52.840 kvar=23.606 daily=Load_Bus 2043_P qmult=Load_Bus 2043_Q model=1
New Load.Load_2045 phases=2 conn=wye bus1=T_bus2045_L.1.2 kV=0.208 kW=7.214 kvar=3.238 daily=Load_Bus 2045_P qmult=Load_Bus 2045_Q model=1
New Load.Load_2046 phases=2 conn=wye bus1=T_bus2046_L.1.2 kV=0.208 kW=27.420 kvar=13.280 daily=Load_Bus 2046_P qmult=Load_Bus 2046_Q model=1
New Load.Load_2047 phases=2 conn=wye bus1=T_bus2047_L.1.2 kV=0.208 kW=28.675 kvar=11.753 daily=Load_Bus 2047_P qmult=Load_Bus 2047_Q model=1
New Load.Load_2048 phases=2 conn=wye bus1=T_bus2048_L.1.2 kV=0.208 kW=26.650 kvar=11.399 daily=Load_Bus 2048_P qmult=Load_Bus 2048_Q model=1
New Load.Load_2049 phases=2 conn=wye bus1=T_bus2049_L.1.2 kV=0.208 kW=18.797 kvar=8.564 daily=Load_Bus 2049_P qmult=Load_Bus 2049_Q model=1
New Load.Load_2050 phases=2 conn=wye bus1=T_bus2050_L.1.2 kV=0.208 kW=17.291 kvar=7.015 daily=Load_Bus 2050_P qmult=Load_Bus 2050_Q model=1
New Load.Load_2051 phases=2 conn=wye bus1=T_bus2051_L.1.2 kV=0.208 kW=23.115 kvar=9.847 daily=Load_Bus 2051_P qmult=Load_Bus 2051_Q model=1
New Load.Load_2052 phases=3 conn=wye bus1=T_bus2052_L.1.2.3.0 kV=0.208 kW=188.283 kvar=83.067 daily=Load_Bus 2052_P qmult=Load_Bus 2052_Q model=1
New Load.Load_2053 phases=3 conn=wye bus1=T_bus2053_L.1.2.3.0 kV=0.208 kW=136.240 kvar=65.984 daily=Load_Bus 2053_P qmult=Load_Bus 2053_Q model=1
New Load.Load_2054 phases=2 conn=wye bus1=T_bus2054_L.1.2 kV=0.208 kW=21.436 kvar=8.352 daily=Load_Bus 2054_P qmult=Load_Bus 2054_Q model=1
New Load.Load_2055 phases=2 conn=wye bus1=T_bus2055_L.1.2 kV=0.208 kW=32.329 kvar=14.730 daily=Load_Bus 2055_P qmult=Load_Bus 2055_Q model=1
New Load.Load_2056 phases=2 conn=wye bus1=T_bus2056_L.1.2 kV=0.208 kW=14.721 kvar=6.571 daily=Load_Bus 2056_P qmult=Load_Bus 2056_Q model=1
New Load.Load_2058 phases=3 conn=wye bus1=T_bus2058_L.1.2.3.0 kV=0.208 kW=183.560 kvar=83.632 daily=Load_Bus 2058_P qmult=Load_Bus 2058_Q model=1
New Load.Load_2059 phases=2 conn=wye bus1=T_bus2059_L.1.2 kV=0.208 kW=9.429 kvar=4.258 daily=Load_Bus 2059_P qmult=Load_Bus 2059_Q model=1
New Load.Load_2060 phases=2 conn=wye bus1=T_bus2060_L.1.2 kV=0.208 kW=10.055 kvar=3.905 daily=Load_Bus 2060_P qmult=Load_Bus 2060_Q model=1
